Circuit: * C:\Users\Carapinha\OneDrive - Universidade de Aveiro\UA\Agora\Meu\PEE\Team Pre-Amp\Simulações PreAmp\Eu\Draft2.asc

Direct Newton iteration failed to find .op point.  (Use ".option noopiter" to skip.)
Starting Gmin stepping
Gmin = 10
Gmin = 1.07374
Gmin = 0.115292
Gmin = 0.0123794
Gmin = 0.00132923
Gmin = 0.000142725
Gmin = 1.5325e-005
Gmin = 1.6455e-006
Gmin = 1.76685e-007
Gmin = 1.89714e-008
Gmin = 2.03704e-009
Gmin = 2.18725e-010
Gmin = 2.34854e-011
Gmin = 2.52173e-012
Gmin = 2.70769e-013
Gmin = 0
Gmin stepping succeeded in finding the operating point.


Date: Wed Jun 06 22:31:22 2018
Total elapsed time: 0.970 seconds.

tnom = 27
temp = 27
method = modified trap
totiter = 3267
traniter = 2535
tranpoints = 1219
accept = 1164
rejected = 55
matrix size = 107
fillins = 80
solver = Normal
Thread vector: 17.4/11.0[2] 6.7/5.8[2] 4.4/4.7[1] 0.8/1.4[1]  2592/500
Matrix Compiler1: 8.03 KB object code size  5.1/3.1/[1.1]
Matrix Compiler2: 9.65 KB object code size  2.5/3.3/[0.9]

